Initial commit
New changes
New changes
This is readme!
New line.
Tag test.