Initial commit
New changes
New changes
This is readme!
New line.
Tag test.
Add changes to version v0.2
Testing changes.
